variable Thigh equal 3285+1000
variable Tlow  equal 3285-1500

units metal
boundary p p p
atom_style atomic

read_data ./a15.data
Reading data file ...
  orthogonal box = (0 0 0) to (58.745 58.745 54.226)
  reading atoms ...
  16224 atoms
replicate 3 1 1
Replication is creating a 3x1x1 = 3 times larger system...
  orthogonal box = (0 0 0) to (176.235 58.745 54.226)
  48672 atoms
  replicate CPU = 0.181 seconds

variable xlo equal xlo+lx/3
variable xhi equal xhi-lx/3
region solid block 58.745 117.49 INF INF INF INF units box
group solid region solid
16692 atoms in group solid
group liquid subtract all solid
31980 atoms in group liquid
set group solid type 2
Setting atom values ...
  16692 settings made for type
write_dump all atom dump.init.T2750_n1_A15.atom

timestep 0.002
variable   Tdamp   equal  dt*100
variable   Pdamp   equal  dt*1000
variable   P       equal  0.0

#------------setting potential---------------
pair_style      eam/alloy
pair_coeff      * * ../Ta.lammps.eam Ta Ta
#-------------potential end------------------

neighbor 2.0 bin
neigh_modify delay 10 every 1 check yes

velocity all create 1785 $n mom yes dist gaussian units box
velocity all create 1785 1 mom yes dist gaussian units box
thermo 100
thermo_style custom step temp press atoms vol pe etotal

fix mom all momentum 1 linear 1 1 1 rescale

fix 1 all npt temp 1785 1785 0.2 iso 0 0 2
run 50000
Step          Temp          Press         Atoms        Volume         PotEng         TotEng
0   1785           2184169.7          48672   561397.72     -206358.28     -195128.45
Averages over the last 251 of 501 rows, steps 25000 to 50000:
Temp Press Atoms Volume PotEng TotEng
1785.91 13.4083 48672 942768 -380687 -369451
Loop time of 178.823 on 24 procs for 50000 steps with 48672 atoms

unfix 1

fix 1 liquid npt temp 4285 4285 0.2 iso 0 0 2
run 250000
Step          Temp          Press         Atoms        Volume         PotEng         TotEng
50000   1784.668       1234.3161          48672   942422.99     -381673.62     -370445.88
Averages over the last 1251 of 2501 rows, steps 175000 to 300000:
Temp Press Atoms Volume PotEng TotEng
4285.06 -4.48395 48672 996101 -351137 -324179
Loop time of 884.665 on 24 procs for 250000 steps with 48672 atoms

unfix 1

fix 1 liquid npt temp 2750 2750 0.2 iso 0 0 2
run 10000
Step          Temp          Press         Atoms        Volume         PotEng         TotEng
300000   4286.8376     -1059.0573          48672   997857.7      -350792.92     -323823.48
Averages over the last 51 of 101 rows, steps 305000 to 310000:
Temp Press Atoms Volume PotEng TotEng
2747.31 55.2954 48672 958591 -365848 -348564
Loop time of 35.9078 on 24 procs for 10000 steps with 48672 atoms

unfix 1

fix 1 solid npt temp 2750 2750 0.2 iso 0 0 2
run 10000
Step          Temp          Press         Atoms        Volume         PotEng         TotEng
310000   2750.548      -1049.3258          48672   959231.81     -365878.68     -348574.38
Averages over the last 51 of 101 rows, steps 315000 to 320000:
Temp Press Atoms Volume PotEng TotEng
2749.7 -23.298 48672 958710 -365866 -348567
Loop time of 34.8126 on 24 procs for 10000 steps with 48672 atoms

unfix 1

log log.T2750_n1_A15.twophase.dat
